21

  C           0.69394329054517     -0.83450087430296     -1.45047354832618
  C           1.27968174849473     -1.29831244993928     -0.27098297020490
  O          -1.80322095242825     -1.49492823572173      0.48257338678382
  C           0.55467059760503      0.55004939135910     -1.36689566254567
  C           1.46376567067331     -0.20734628054932      0.61412729937714
  Cl          1.54972406835504     -2.93782440138523      0.11682026055806
  H          -0.11682972519382      0.75824782309610      2.16818476713068
  C          -0.96786720569476     -1.18705920618493      1.54962166819131
  Cl          0.09577093914338     -1.82152856296868     -2.71486742955375
  C          -1.12612269599350      0.69957002672269      0.20962310813695
  O          -0.76518627257566     -1.94883748595265      2.44054177078106
  C          -1.39306682763141      2.07017943541394     -0.01167616763212
  C          -0.41322378203272      0.17098566472280      1.31326529554282
  C          -2.03598206255101     -0.35527312510575     -0.29252678858932
  H           1.18938303853215      1.95128887887765      0.19829854075864
  O          -2.83080539316327     -0.33964415435556     -1.17551531576657
  N          -1.56042950921407      3.19743124497534     -0.19004411116499
  H           2.47851435389015      1.13789414935070     -0.69173629862682
  C           1.47160748872275      1.01646379938070     -0.27571110837181
  H           2.06631311012051     -0.29986829817584      1.50539455721010
  H           0.16936012039622      1.17301266074289     -2.15802125368841
